test/test_files/validation_tests/case2383wp.m
function mpc = case2383wp
%CASE2383WP  Power flow data for Polish system - winter 1999-2000 peak.
%   Please see CASEFORMAT for details on the case file format.
%
%   This case represents the Polish 400, 220 and 110 kV networks during
%   winter 1999-2000 peak conditions. It is part of the 7500+ bus
%   Europen UCTE system. To decrease the number of buses, the tie lines
%   to foreign networks were replaced by artificial load or generator
%   buses (180-186). Multiple generators at a bus have been aggregated.
%   Generators that are not centrally dispatchable in the Polish energy
%   market are given a cost of zero.
%
%   This data was graciously provided by, and is distributed with the
%   permission of, Roman Korab <roman.korab@polsl.pl>.

%   MATPOWER

%% MATPOWER Case Format : Version 2
mpc.version = '2';

%%-----  Power Flow Data  -----%%
%% system MVA base
mpc.baseMVA = 100;

%% bus data
%    bus_i    type    Pd    Qd    Gs    Bs    area    Vm    Va    baseKV    zone    Vmax    Vmin
mpc.bus = [
    1    1    0    0    0    0    1    1.0945877    -1.4947677    220    1    1.11    0.95;
    2    1    0    0    0    0    1    1.0853611    -1.0101313    220    1    1.11    0.95;
    3    1    0    0    0    0    1    1.0745702    -26.208185    220    1    1.11    0.95;
    4    1    0    0    0    0    1    1.0714122    -8.5164763    220    1    1.11    0.95;
    5    1    0    0    0    0    1    1.0665303    -18.99745    220    1    1.11    0.95;
    6    1    0    0    0    0    1    1.0235863    -13.822343    400    1    1.05    0.95;
    7    1    0    0    0    0    1    1.0597742    -21.443703    220    1    1.11    0.95;
    8    1    0    0    0    0    1    1.0274658    -10.380289    400    1    1.05    0.95;
    9    1    0    0    0    0    1    1.0356969    -16.876105    400    1    1.05    0.95;
    10    2    12.23    9    0    0    1    1.1082311    -20.649904    220    1    1.11    0.95;
    11    1    0    0    0    0    1    1.077772    -7.0641396    220    1    1.11    0.95;
    12    1    0    0    0    0    1    1.0668445    -23.917665    220    1    1.11    0.95;
    13    1    0    0    0    0    1    1.0651982    -21.489714    220    1    1.11    0.95;
    14    1    0    0    0    0    1    1.0663588    -5.069768    220    1    1.11    0.95;
    15    1    0    0    0    0    1    1.0094205    -15.318814    400    1    1.05    0.95;
    16    2    54.88    100    0    0    1    1.0974008    -0.98470838    220    1    1.11    0.95;
    17    2    77    150    0    0    1    1.0910267    -0.14840674    220    1    1.11    0.95;
    18    3    153    350    0    0    1    1.0337129    0    400    1    1.05    0.95;
    19    1    0    0    0    0    1    1.0659295    -22.685677    220    1    1.11    0.95;
    20    1    0    0    0    0    1    1.0371271    -1.9368717    400    1    1.05    0.95;
    21    1    0    0    0    0    1    1.0594484    -21.874798    220    1    1.11    0.95;
    22    1    0    0    0    0    1    1.0814061    -12.38874    220    1    1.11    0.95;
    23    1    0    0    0    0    1    1.0623561    -16.684586    220    2    1.11    0.95;
    24    1    0    0    0    0    1    1.0544773    -12.101862    220    2    1.11    0.95;
    25    1    0    0    0    0    1    1.0566312    -10.623758    220    2    1.11    0.95;
    26    1    0    0    0    0    1    1.0514089    -19.520072    220    2    1.11    0.95;
    27    1    0    0    0    0    1    1.065879    -10.248111    220    2    1.11    0.95;
    28    1    0    0    0    0    1    1.0658528    -10.243115    220    2    1.11    0.95;
    29    2    25.98    60    0    0    1    1.0967104    -15.340069    220    2    1.11    0.95;
    30    2    25.98    60    0    0    1    1.0967037    -15.340793    220    2    1.11    0.95;
    31    2    20.98    50    0    0    1    1.0214422    -10.730991    400    2    1.05    0.95;
    32    1    0    0    0    0    1    1.0214388    -10.770221    400    2    1.05    0.95;
    33    1    0    0    0    0    1    1.0603418    -11.007759    220    2    1.11    0.95;
    34    1    0    0    0    0    1    1.0437449    -10.313949    400    2    1.05    0.95;
    35    1    0    0    0    0    1    1.0437713    -10.321962    400    2    1.05    0.95;
    36    1    0    0    0    0    1    1.0036235    -14.019908    400    2    1.05    0.95;
    37    1    0    0    0    0    1    1.0617538    -17.65358    220    2    1.11    0.95;
    38    1    0    0    0    0    1    1.0617576    -17.652543    220    2    1.11    0.95;
    39    1    0    0    0    0    1    1.0154269    -9.4424041    400    2    1.05    0.95;
    40    1    0    0    0    0    1    1.0154039    -9.4320741    400    2    1.05    0.95;
    41    2    11.99    30    0    0    1    1.0608776    -8.4979859    220    2    1.11    0.95;
    42    2    11.99    30    0    0    1    1.0608614    -8.5104656    220    2    1.11    0.95;
    43    2    23.98    60    0    0    1    1.0229141    -6.9130429    400    2    1.05    0.95;
    44    2    23.98    60    0    0    1    1.0229414    -6.9257613    400    2    1.05    0.95;
    45    2    159.84    75    0    0    1    1.0792177    -16.289871    220    2    1.11    0.95;
    46    1    0    0    0    0    1    1.0792304    -16.288302    220    2    1.11    0.95;
    47    1    0    0    0    0    1    1.0601105    -10.892212    220    2    1.11    0.95;
    48    1    0    0    0    0    1    1.0778118    -15.293456    220    2    1.11    0.95;
    49    1    0    0    0    0    1    1.0778399    -15.297932    220    2    1.11    0.95;
    50    1    0    0    0    0    1    1.0308481    -8.5192355    400    2    1.05    0.95;
    51    1    0    0    0    0    1    1.0309346    -8.5378387    400    2    1.05    0.95;
    52    1    0    0    0    0    1    1.0531367    -13.126893    220    2    1.11    0.95;
    53    1    0    0    0    0    1    1.0551341    -13.005169    220    2    1.11    0.95;
    54    1    0    0    0    0    1    1.056839    -10.553596    220    2    1.11    0.95;
    55    1    0    0    0    0    1    1.0666858    -16.701687    220    2    1.11    0.95;
    56    1    0    0    0    0    1    1.0801732    -5.1254995    220    3    1.11    0.95;
    57    1    22.98    10.96    0    0    1    1.0788131    -7.2859357    220    3    1.11    0.95;
    58    1    21.98    5.79    0    0    1    1.079041    -7.2859427    220    3    1.11    0.95;
    59    1    0    0    0    0    1    1.1053709    0.46680305    220    3    1.11    0.95;
    60    1    0    0    0    0    1    1.1034167    -3.8522131    220    3    1.11    0.95;
    61    1    0    0    0    0    1    1.1084574    2.0938304    220    3    1.11    0.95;
    62    1    0    0    0    0    1    1.1084386    2.0954656    220    3    1.11    0.95;
    63    2    37.37    52.69    0    0    1    1.11    0.81330015    220    3    1.11    0.95;
    64    2    35.37    55.32    0    0    1    1.1092626    0.64640274    220    3    1.11    0.95;
    65    1    13.39    2.02    0    0    1    1.1032007    -1.0285054    220    3    1.11    0.95;
    66    1    0    0    0    0    1    1.1002514    -8.6354732    220    3    1.11    0.95;
    67    2    60.4    92.1    0    0    1    1.05    -6.5572721    400    3    1.05    0.95;
    68    1    0    0    0    0    1    1.1001654    -6.9023386    220    3    1.11    0.95;
    69    1    0    0    0    0    1    1.1069854    -0.83820638    220    3    1.11    0.95;
    70    1    0    0    0    0    1    1.0848694    -4.3023178    220    3    1.11    0.95;
    71    1    0    0    0    0    1    1.0989066    -1.837146    220    3    1.11    0.95;
    72    1    0    0    0    0    1    1.0989066    -1.837146    220    3    1.11    0.95;
    73    1    0    0    0    0    1    1.0878356    -3.6331435    220    3    1.11    0.95;
    74    1    0    0    0    0    1    1.0848991    -4.5132859    220    3    1.11    0.95;
    75    1    0    0    0    0    1    1.0319269    -1.6723208    400    3    1.05    0.95;
    76    1    0    0    0    0    1    1.031903    -1.6782928    400    3    1.05    0.95;
    77    1    0    0    0    0    1    1.0986956    -2.26735    220    3    1.11    0.95;
    78    1    0    0    0    0    1    1.0966324    -4.9713203    220    3    1.11    0.95;
    79    1    0    0    0    0    1    1.0987986    -1.276796    220    3    1.11    0.95;
    80    1    0    0    0    0    1    1.0794572    -7.2345064    220    3    1.11    0.95;
    81    1    0    0    0    0    1    1.0794748    -7.2341604    220    3    1.11    0.95;
    82    1    0    0    0    0    1    1.1039055    1.0127598    220    3    1.11    0.95;
    83    2    15.99    22.97    0    0    1    1.1089547    -0.82047491    220    3    1.11    0.95;
    84    2    15.79    22.27    0    0    1    1.1090726    -0.82183963    220    3    1.11    0.95;
    85    2    9.99    17.01    0    0    1    1.1017195    -2.2938246    220    3    1.11    0.95;
    86    2    9.99    16.66    0    0    1    1.1016369    -2.29227    220    3    1.11    0.95;
    87    1    11.09    16.22    0    0    1    1.0893689    -3.1476165    220    3    1.11    0.95;
    88    1    0    0    0    0    1    1.0893851    -3.1479875    220    3    1.11    0.95;
    89    1    0    0    0    0    1    1.1000808    -1.2380944    220    3    1.11    0.95;
    90    1    0    0    0    0    1    1.1042303    -1.7979475    220    3    1.11    0.95;
    91    1    0    0    0    0    1    1.1025585    -0.66612181    220    3    1.11    0.95;
    92    1    0    0    0    0    1    1.0237095    -5.5065252    400    3    1.05    0.95;
    93    2    9.99    16.39    0    0    1    1.1056302    -0.2952057    220    3    1.11    0.95;
    94    1    0    0    0    0    1    1.1056158    -0.29680978    220    3    1.11    0.95;
    95    2    6.89    8.15    0    0    1    1.1075265    -0.4539646    220    3    1.11    0.95;
    96    1    0    0    0    0    1    1.1075224    -0.45839832    220    3    1.11    0.95;
    97    2    8.69    5.26    0    0    1    1.0967425    -4.8472969    220    3    1.11    0.95;
    98    1    0    0    0    0    1    1.0231775    -7.554412    400    3    1.05    0.95;
    99    1    0    0    0    0    1    1.0232586    -7.5444428    400    3    1.05    0.95;
    100    1    0    0    0    0    1    1.0319735    -5.1585252    400    3    1.05    0.95;
    101    1    0    0    0    0    1    1.0319919    -5.1492029    400    3    1.05    0.95;
    102    1    0    0    0    0    1    1.1020054    -1.14745    220    3    1.11    0.95;
    103    2    18.09    23.76    0    0    1    1.1067084    -1.913684    220    3    1.11    0.95;
    104    2    33.68    46.11    0    0    1    1.106757    -1.9078196    220    3    1.11    0.95;
    105    2    33.78    62.95    0    0    1    1.0166743    -4.8853891    400    3    1.05    0.95;
    106    1    0    0    0    0    1    1.0168266    -4.8990837    400    3    1.05    0.95;
    107    1    0    0    0    0    1    1.0835964    -4.5876186    220    3    1.11    0.95;
    108    1    0    0    0    0    1    1.0853205    -4.4168627    220    3    1.11    0.95;
    109    2    1    22.36    0    0    1    1.11    2.8143573    220    3    1.11    0.95;
    110    2    1    22.18    0    0    1    1.11    2.8158748    220    3    1.11    0.95;
    111    2    26.49    18    0    0    1    1.1066085    -14.342043    220    4    1.11    0.95;
    112    1    0    0    0    0    1    1.1064908    -14.335874    220    4    1.11    0.95;
    113    1    0    0    0    0    1    1.0622147    -26.875135    220    4    1.11    0.95;
    114    1    0    0    0    0    1    1.0754961    -26.337792    220    4    1.11    0.95;
    115    1    0    0    0    0    1    0.98336245    -20.290762    400    4    1.05    0.95;
    116    1    0    0    0    0    1    0.9833576    -20.281214    400    4    1.05    0.95;
    117    1    0    0    0    0    1    1.0726984    -30.012965    220    4    1.11    0.95;
    118    1    0    0    0    0    1    1.0671655    -38.724474    220    4    1.11    0.95;
    119    1    0    0    0    0    1    1.0671655    -38.724474    220    4    1.11    0.95;
    120    1    0    0    0    0    1    1.0513316    -37.190715    220    4    1.11    0.95;
    121    1    0    0    0    0    1    1.0699553    -26.91977    220    4    1.11    0.95;
    122    1    0    0    0    0    1    1.0699553    -26.91977    220    4    1.11    0.95;
    123    2    5.5    7    0    0    1    1.1096575    -19.400308    220    4    1.11    0.95;
    124    2    8.79    17    0    0    1    1.1096796    -19.394703    220    4    1.11    0.95;
    125    2    35.7    18.3    0    0    1    1.1062235    -35.575758    220    4    1.11    0.95;
    126    1    25.28    15.9    0    0    1    1.1060523    -35.563149    220    4    1.11    0.95;
    127    2    25.71    15.3    0    0    1    1.0330077    -27.760745    400    4    1.05    0.95;
    128    1    0    0    0    0    1    1.0329471    -27.768773    400    4    1.05    0.95;
    129    1    0    0    0    0    1    1.0451738    -32.578133    220    4    1.11    0.95;
    130    1    0    0    0    0    1    1.0345938    -33.954129    220    4    1.11    0.95;
    131    2    68.67    70    0    0    1    1.0993161    -24.081795    220    4    1.11    0.95;
    132    2    33    45    0    0    1    1.0994336    -24.0968    220    4    1.11    0.95;
    133    1    0    0    0    0    1    0.99528738    -19.61073    400    4    1.05    0.95;
    134    1    0    0    0    0    1    0.99528984    -19.609417    400    4    1.05    0.95;
    135    1    0    0    0    0    1    1.0672352    -38.652391    220    4    1.11    0.95;
    136    1    0    0    0    0    1    1.0672352    -38.652391    220    4    1.11    0.95;
    137    1    0    0    0    0    1    1.0000355    -16.649236    400    4    1.05    0.95;
    138    1    0    0    0    0    1    1.0000355    -16.649236    400    4    1.05    0.95;
    139    2    33.2    22.6    0    0    1    1.11    -19.694688    220    4    1.11    0.95;
    140    2    29.23    19.6    0    0    1    1.1099933    -19.702053    220    4    1.11    0.95;
    141    1    0    0    0    0    1    1.048715    -35.311344    220    4    1.11    0.95;
    142    1    0    0    0    0    1    1.064119    -38.929037    220    4    1.11    0.95;
    143    1    0    0    0    0    1    1.0713386    -31.500664    220    4    1.11    0.95;
    144    1    0    0    0    0    1    1.0712535    -31.499755    220    4    1.11    0.95;
    145    1    0    0    0    0    1    0.97659289    -31.179217    400    4    1.05    0.95;
    146    1    0    0    0    0    1    0.97659289    -31.179217    400    4    1.05    0.95;
    147    1    0    0    0    0    1    1.0443448    -30.604356    220    4    1.11    0.95;
    148    1    0    0    0    0    1    1.0443916    -30.598683    220    4    1.11    0.95;
    149    1    0    0    0    0    1    1.0678968    -32.197135    220    4    1.11    0.95;
    150    1    0    0    0    0    1    1.0650767    -26.052001    220    4    1.11    0.95;
    151    1    0    0    0    0    1    1.0651101    -26.059553    220    4    1.11    0.95;
    152    1    0    0    0    0    1    1.0585155    -22.471056    220    4    1.11    0.95;
    153    1    0    0    0    0    1    1.0585155    -22.471056    220    4    1.11    0.95;
    154    1    0    0    0    0    1    1.0281414    -32.398849    220    4    1.11    0.95;
    155    1    0    0    0    0    1    1.0546513    -27.826247    220    5    1.11    0.95;
    156    1    0    0    0    0    1    1.11    -30.199576    220    5    1.11    0.95;
    157    1    0    0    0    0    1    1.0249742    -28.306241    400    5    1.05    0.95;
    158    1    0    0    0    0    1    1.0249445    -28.299084    400    5    1.05    0.95;
    159    1    0    0    0    0    1    1.0281885    -25.15157    400    5    1.05    0.95;
    160    1    0    0    0    0    1    1.0282505    -25.159467    400    5    1.05    0.95;
    161    1    0    0    0    0    1    1.0551509    -31.094903    220    5    1.11    0.95;
    162    1    0    0    0    0    1    1.0551612    -31.095945    220    5    1.11    0.95;
    163    1    0    0    0    0    1    1.0871116    -28.613244    220    5    1.11    0.95;
    164    1    0    0    0    0    1    1.0870899    -28.614645    220    5    1.11    0.95;
    165    1    0    0    0    0    1    1.0015127    -22.606405    400    5    1.05    0.95;
    166    1    0    0    0    0    1    1.0669085    -27.062976    220    5    1.11    0.95;
    167    1    0    0    0    0    1    1.0669473    -27.061011    220    5    1.11    0.95;
    168    1    0    0    0    0    1    1.0301024    -26.893903    400    5    1.05    0.95;
    169    1    0    0    0    0    1    1.0300885    -26.900803    400    5    1.05    0.95;
    170    1    0    0    0    0    1    1.0558357    -27.940656    220    5    1.11    0.95;
    171    1    0    0    0    0    1    1.0558643    -27.937264    220    5    1.11    0.95;
    172    1    0    0    0    0    1    1.0622074    -29.119619    220    5    1.11    0.95;
    173    1    0    0    0    0    1    1.0621703    -29.117898    220    5    1.11    0.95;
    174    1    0    0    0    0    1    1.0599592    -26.90187    220    5    1.11    0.95;
    175    1    0    0    0    0    1    1.0599468    -26.909123    220    5    1.11    0.95;
    176    2    0    40    0    0    1    1.0312974    -23.918174    400    5    1.05    0.95;
    177    2    0    40    0    0    1    1.0314652    -23.915354    400    5    1.05    0.95;
    178    1    0    0    0    0    1    1.0784273    -32.277798    220    5    1.11    0.95;
    179    1    0    0    0    0    1    1.0784605    -32.27305    220    5    1.11    0.95;
    180    2    339.85    49.6    0    0    2    1.0088011    -7.67851    400    6    1.05    0.95;
    181    2    0    0    0    0    3    1.107243    -9.829618    220    6    1.11    0.95;
    182    2    0    0    0    0    5    0.99674384    -19.315074    400    6    1.05    0.95;
    183    1    150    0    0    0    3    1.05    -11.249574    400    6    1.05    0.95;
    184    2    317.34    50.3    0    0    2    1.0968373    -4.7574182    220    6    1.11    0.95;
    185    2    362.43    36.7    0    0    2    1.0079864    -8.4602128    400    6    1.05    0.95;
    186    2    33.33    1    0    0    5    1.1085323    -35.707557    220    6    1.11    0.95;
    187    1    7.12    1.5    0    0    1    1.0661462    -25.696348    110    1    1.12    0.95;
    188    1    7.63    1    0    0    1    1.0417885    -32.262122    110    1    1.12    0.95;
    189    1    9.77    8.7    0    0    1    0.99718305    -29.5143    110    1    1.12    0.95;
    190    1    6.12    1.5    0    0    1    1.1039302    -5.684507    110    1    1.12    0.95;
    191    1    6.12    1.6    0    0    1    1.0850303    -6.8881668    110    1    1.12    0.95;
    192    2    30.56    12    0    0    1    1.12    -22.081124    110    1    1.12    0.95;
    193    1    15.28    3    0    0    1    1.1188593    -21.954733    110    1    1.12    0.95;
    194    1    0    0    0    0    1    1.1185785    -22.247684    110    1    1.12    0.95;
    195    1    8.14    2    0    0    1    1.0830451    -26.733431    110    1    1.12    0.95;
    196    2    6.92    1.5    0    0    1    1.0192036    -33.404165    110    1    1.12    0.95;
    197    1    6.92    1.5    0    0    1    1.0731126    -15.402964    110    1    1.12    0.95;
    198    2    12.32    1.7    0    0    1    1.0753335    -26.893503    110    1    1.12    0.95;
    199    1    1.43    0.5    0    0    1    1.1078311    -8.269607    110    1    1.12    0.95;
    200    1    1.08    0.5    0    0    1    1.0976338    -25.949869    110    1    1.12    0.95;
...
];

%% generator data
%    bus    Pg    Qg    Qmax    Qmin    Vg    mBase    status    Pmax    Pmin    Pc1    Pc2    Qc1min    Qc1max    Qc2min    Qc2max    ramp_agc    ramp_10    ramp_30    ramp_q    apf
mpc.gen = [
    10    400    120    120    0    1    168    1    400    70    0    0    0    0    0    0    0    0    0    0    0;
    16    720    160.532    440    -40    1    823    1    720    120    0    0    0    0    0    0    0    0    0    0    0;
    17    1080    212.82    660    -60    1    1234    1    1080    120    0    0    0    0    0    0    0    0    0    0    0;
    18    2520    160.59    1540    -140    1    2879    1    2520    120    0    0    0    0    0    0    0    0    0    0    0;
    29    70    240    240    0    1    511    1    400    70    0    0    0    0    0    0    0    0    0    0    0;
    30    70    129.949    240    0    1    511    1    800    70    0    0    0    0    0    0    0    0    0    0    0;
    31    1000    0    350    0    1    420    1    1000    150    0    0    0    0    0    0    0    0    0    0    0;
    41    200    0    120    0    1    241    1    200    70    0    0    0    0    0    0    0    0    0    0    0;
    42    70    0    120    0    1    241    1    410    70    0    0    0    0    0    0    0    0    0    0    0;
    43    410    0    240    0    1    482    1    410    70    0    0    0    0    0    0    0    0    0    0    0;
    44    410    0    240    0    1    482    1    410    70    0    0    0    0    0    0    0    0    0    0    0;
    45    42.2    21    21    0    1    49    1    42.2    39.14    0    0    0    0    0    0    0    0    0    0    0;
    63    650    103.63    302    0    1    473    1    650    145    0    0    0    0    0    0    0    0    0    0    0;
    64    450    78.8702    311    2    1    475    1    450    145    0    0    0    0    0    0    0    0    0    0    0;
    67    750    413.726    449    0    1    864    1    750    220    0    0    0    0    0    0    0    0    0    0    0;
    83    225    -89    190    -89    1    239    1    225    140    0    0    0    0    0    0    0    0    0    0    0;
    84    225    167.231    190    -89    1    251    1    225    140    0    0    0    0    0    0    0    0    0    0    0;
    85    120    119.623    125    -50    1    133    1    120    40    0    0    0    0    0    0    0    0    0    0    0;
    86    120    -6.01871    125    -50    1    133    1    120    40    0    0    0    0    0    0    0    0    0    0    0;
    93    120    50.5085    90    5    1    123    1    120    80    0    0    0    0    0    0    0    0    0    0    0;
    95    110    27    68    27    1    105    1    110    50    0    0    0    0    0    0    0    0    0    0    0;
    97    87.6    41.8528    68    27    1    105    1    87.6    83.26    0    0    0    0    0    0    0    0    0    0    0;
    103    160    68.7599    177    -82    1    239    1    400    160    0    0    0    0    0    0    0    0    0    0    0;
    104    225    97.3097    379    -177    1    490    1    225    140    0    0    0    0    0    0    0    0    0    0    0;
    105    430    -165    353    -165    1    502    1    430    160    0    0    0    0    0    0    0    0    0    0    0;
    109    250    17.6233    65    0    1    277    1    250    80    0    0    0    0    0    0    0    0    0    0    0;
    110    250    17.7852    65    0    1    280    1    250    80    0    0    0    0    0    0    0    0    0    0    0;
    111    360    126.446    270    0    1    401    1    360    40    0    0    0    0    0    0    0    0    0    0    0;
    123    20    40    40    0    1    98    1    110    20    0    0    0    0    0    0    0    0    0    0    0;
    124    125    90    90    0    1    132    1    125    45    0    0    0    0    0    0    0    0    0    0    0;
    125    70    360    360    0    1    654    1    860    70    0    0    0    0    0    0    0    0    0    0    0;
    127    690    0    360    0    1    540    1    690    70    0    0    0    0    0    0    0    0    0    0    0;
    131    645.377    52.6305    360    0    1    696    1    1060    70    0    0    0    0    0    0    0    0    0    0    0;
    132    70    286.7    480    0    1    732    1    600    70    0    0    0    0    0    0    0    0    0    0    0;
    139    408.67    147.319    360    0    1    714    1    600    70    0    0    0    0    0    0    0    0    0    0    0;
    140    200    120    120    0    1    240    1    200    70    0    0    0    0    0    0    0    0    0    0    0;
    176    600    -120    220    -120    1    430    1    600    70    0    0    0    0    0    0    0    0    0    0    0;
    177    200    201.005    220    -120    1    430    1    200    70    0    0    0    0    0    0    0    0    0    0    0;
    180    0    16.8544    99999    -99999    1    7485    1    0    0    0    0    0    0    0    0    0    0    0    0    0;
    181    175    26.1506    99999    -99999    1    210    1    175    174    0    0    0    0    0    0    0    0    0    0    0;
    182    307.59    48.5395    99999    -99999    1    13465    1    307.59    306    0    0    0    0    0    0    0    0    0    0    0;
    184    0    69.5787    99999    -99999    1    8353    1    0    0    0    0    0    0    0    0    0    0    0    0    0;
    185    0    12.233    99999    -99999    1    14254    1    0    0    0    0    0    0    0    0    0    0    0    0    0;
    186    0    32.0974    99999    -99999    1    7401    1    0    0    0    0    0    0    0    0    0    0    0    0    0;
    192    95    28.3494    50    0    1    114    1    95    90.25    0    0    0    0    0    0    0    0    0    0    0;
    196    0.9    1    1    0    1    1    1    0.9    0.86    0    0    0    0    0    0    0    0    0    0    0;
    198    0.8    1    1    0    1    1    1    0.8    0.76    0    0    0    0    0    0    0    0    0    0    0;
    205    15    6.20319    10    0    1    18    1    15    14.25    0    0    0    0    0    0    0    0    0    0    0;
    213    11    8    8    0    1    13    1    11    10.45    0    0    0    0    0    0    0    0    0    0    0;
    264    2.5    2    2    0    1    3    1    2.5    2.38    0    0    0    0    0    0    0    0    0    0    0;
    269    6    5    5    0    1    7    1    6    5.7    0    0    0    0    0    0    0    0    0    0    0;
    277    70    40.2687    42    0    1    84    1    70    66.5    0    0    0    0    0    0    0    0    0    0    0;
    278    60    12.5429    40    0    1    72    1    60    57    0    0    0    0    0    0    0    0    0    0    0;
    279    60    17.8785    40    0    1    72    1    60    57    0    0    0    0    0    0    0    0    0    0    0;
    281    120    34.0803    90    0    1    144    1    120    114    0    0    0    0    0    0    0    0    0    0    0;
    282    40    16.9838    40    0    1    48    1    40    38    0    0    0    0    0    0    0    0    0    0    0;
    289    2.5    3    3    0    1    3    1    2.5    2.38    0    0    0    0    0    0    0    0    0    0    0;
    294    2    1    1    0    1    2    1    2    1.9    0    0    0    0    0    0    0    0    0    0    0;
    314    1.5    1    1    0    1    2    1    1.5    1.43    0    0    0    0    0    0    0    0    0    0    0;
    328    44    19.2819    21    0    1    53    1    44    41.8    0    0    0    0    0    0    0    0    0    0    0;
    329    44    21    21    0    1    53    1    44    41.8    0    0    0    0    0    0    0    0    0    0    0;
    330    44    0    21    0    1    53    1    44    41.8    0    0    0    0    0    0    0    0    0    0    0;
    331    43    21    21    0    1    52    1    43    40.85    0    0    0    0    0    0    0    0    0    0    0;
    334    1.5    1    1    0    1    2    1    1.5    1.43    0    0    0    0    0    0    0    0    0    0    0;
    346    200    25.128    120    0    1    180    1    200    70    0    0    0    0    0    0    0    0    0    0    0;
    347    10    9.77566    15    0    1    12    1    10    10    0    0    0    0    0    0    0    0    0    0    0;
    359    1.5    1    1    0    1    2    1    1.5    1.43    0    0    0    0    0    0    0    0    0    0    0;
    365    5.1    3    3    0    1    6    1    5.1    4.85    0    0    0    0    0    0    0    0    0    0    0;
    382    8    5    5    0    1    10    1    8    7.6    0    0    0    0    0    0    0    0    0    0    0;
    383    8    5    5    0    1    10    1    8    7.6    0    0    0    0    0    0    0    0    0    0    0;
    385    6    4    4    0    1    7    1    6    5.7    0    0    0    0    0    0    0    0    0    0    0;
    390    4.5    3    3    0    1    5    1    4.5    4.28    0    0    0    0    0    0    0    0    0    0    0;
    395    10    5.15536    8    0    1    12    1    10    9.5    0    0    0    0    0    0    0    0    0    0    0;
    404    3    3    3    0    1    4    1    3    2.85    0    0    0    0    0    0    0    0    0    0    0;
    426    3.2    2    2    0    1    4    1    3.2    3.04    0    0    0    0    0    0    0    0    0    0    0;
    444    1    0    1    0    1    1    1    1    0.95    0    0    0    0    0    0    0    0    0    0    0;
    451    4.5    3    3    0    1    5    1    4.5    4.28    0    0    0    0    0    0    0    0    0    0    0;
    482    1    0    1    0    1    1    1    1    0.95    0    0    0    0    0    0    0    0    0    0    0;
    492    2    1    1    0    1    2    1    2    1.9    0    0    0    0    0    0    0    0    0    0    0;
    493    234    108.562    130    0    1    281    1    234    222.3    0    0    0    0    0    0    0    0    0    0    0;
    494    234    130    130    0    1    281    1    234    222.3    0    0    0    0    0    0    0    0    0    0    0;
    514    115    90    90    0    1    138    1    115    109.25    0    0    0    0    0    0    0    0    0    0    0;
    515    115    90    90    0    1    138    1    115    109.25    0    0    0    0    0    0    0    0    0    0    0;
    525    6    4    4    0    1    7    1    6    5.7    0    0    0    0    0    0    0    0    0    0    0;
    536    6    6    6    0    1    7    1    6    5.7    0    0    0    0    0    0    0    0    0    0    0;
    537    3.5    3    3    0    1    4    1    3.5    3.33    0    0    0    0    0    0    0    0    0    0    0;
    556    2.7    1    1    0    1    3    1    2.7    2.57    0    0    0    0    0    0    0    0    0    0    0;
    580    1.6    1    1    0    1    2    1    1.6    1.52    0    0    0    0    0    0    0    0    0    0    0;
    584    2.7    2    2    0    1    3    1    2.7    2.57    0    0    0    0    0    0    0    0    0    0    0;
    585    4    2    2    0    1    5    1    4    3.8    0    0    0    0    0    0    0    0    0    0    0;
    607    0.8    0    0    0    1    1    1    0.8    0.76    0    0    0    0    0    0    0    0    0    0    0;
    612    152.955    70.2917    120    0    1    256    1    200    70    0    0    0    0    0    0    0    0    0    0    0;
    613    200    94.9498    120    0    1    256    1    200    70    0    0    0    0    0    0    0    0    0    0    0;
    615    1.4    1    1    0    1    2    1    1.4    1.33    0    0    0    0    0    0    0    0    0    0    0;
    623    7.6    5    5    0    1    9    1    7.6    7.22    0    0    0    0    0    0    0    0    0    0    0;
    639    9.6    4    4    0    1    12    1    9.6    9.12    0    0    0    0    0    0    0    0    0    0    0;
    651    4.7    2    2    0    1    6    1    4.7    4.47    0    0    0    0    0    0    0    0    0    0    0;
    654    1.4    0    1    0    1    2    1    1.4    1.33    0    0    0    0    0    0    0    0    0    0    0;
    664    6.2    6    6    0    1    7    1    6.2    5.89    0    0    0    0    0    0    0    0    0    0    0;
    670    2.7    0    2    0    1    3    1    2.7    2.57    0    0    0    0    0    0    0    0    0    0    0;
    674    1    0    0    0    1    1    1    1    0.95    0    0    0    0    0    0    0    0    0    0    0;
    688    70    18.0507    120    0    1    242    1    202    70    0    0    0    0    0    0    0    0    0    0    0;
    692    1.4    1    1    0    1    2    1    1.4    1.33    0    0    0    0    0    0    0    0    0    0    0;
    699    3.8    0    2    0    1    5    1    3.8    3.61    0    0    0    0    0    0    0    0    0    0    0;
    712    1.2    1    1    0    1    1    1    1.2    1.14    0    0    0    0    0    0    0    0    0    0    0;
    730    6.9    0    3    0    1    8    1    6.9    6.56    0    0    0    0    0    0    0    0    0    0    0;
    732    1.1    0    1    0    1    1    1    1.1    1.05    0    0    0    0    0    0    0    0    0    0    0;
    735    4.1    2    2    0    1    5    1    4.1    3.9    0    0    0    0    0    0    0    0    0    0    0;
    740    4    0    1    0    1    5    1    4    3.8    0    0    0    0    0    0    0    0    0    0    0;
    744    134    0    60    0    1    161    1    134    127.3    0    0    0    0    0    0    0    0    0    0    0;
    754    80    0.56718    30    0    1    54    1    80    10    0    0    0    0    0    0    0    0    0    0    0;
    755    85    14.8352    80    0    1    110    1    250    85    0    0    0    0    0    0    0    0    0    0    0;
    760    3.1    2    2    0    1    4    1    3.1    2.95    0    0    0    0    0    0    0    0    0    0    0;
    766    2.1    1    1    0    1    3    1    2.1    2    0    0    0    0    0    0    0    0    0    0    0;
    784    0.7    0    0    0    1    1    1    0.7    0.67    0    0    0    0    0    0    0    0    0    0    0;
    790    49.8    35    35    35    1    60    1    49.8    47.31    0    0    0    0    0    0    0    0    0    0    0;
    795    1.89    1    1    1    1    2    1    1.89    1.8    0    0    0    0    0    0    0    0    0    0    0;
    798    2.99    3    3    3    1    4    1    2.99    2.84    0    0    0    0    0    0    0    0    0    0    0;
    814    44.92    16.1224    42    0    1    54    1    44.92    42.67    0    0    0    0    0    0    0    0    0    0    0;
    834    55    81.2873    83    0    1    110    1    55    23    0    0    0    0    0    0    0    0    0    0    0;
    878    2.99    0    0    0    1    4    1    2.99    2.84    0    0    0    0    0    0    0    0    0    0    0;
    884    2.49    0    0    0    1    3    1    2.49    2.37    0    0    0    0    0    0    0    0    0    0    0;
    892    31.87    34.124    42    6    1    38    1    31.87    30.28    0    0    0    0    0    0    0    0    0    0    0;
    895    8.96    7    7    7    1    11    1    8.96    8.51    0    0    0    0    0    0    0    0    0    0    0;
    901    3.68    2    2    2    1    4    1    3.68    3.5    0    0    0    0    0    0    0    0    0    0    0;
    910    4.58    3    3    3    1    6    1    4.58    4.35    0    0    0    0    0    0    0    0    0    0    0;
    911    370    59.1031    224    0    1    415    1    370    280    0    0    0    0    0    0    0    0    0    0    0;
    912    370    67.4296    224    0    1    415    1    370    280    0    0    0    0    0    0    0    0    0    0    0;
    914    15.93    10    10    10    1    19    1    15.93    15.13    0    0    0    0    0    0    0    0    0    0    0;
    917    2.09    0    0    0    1    3    1    2.09    1.99    0    0    0    0    0    0    0    0    0    0    0;
    919    21.91    12    12    12    1    26    1    21.91    20.81    0    0    0    0    0    0    0    0    0    0    0;
    920    1.99    0    0    0    1    2    1    1.99    1.89    0    0    0    0    0    0    0    0    0    0    0;
    929    63.73    32.3057    50    29    1    77    1    63.73    60.54    0    0    0    0    0    0    0    0    0    0    0;
    959    2.49    1    1    1    1    3    1    2.49    2.37    0    0    0    0    0    0    0    0    0    0    0;
    968    0.7    0    0    0    1    1    1    0.7    0.67    0    0    0    0    0    0    0    0    0    0    0;
    993    3.98    1    1    1    1    5    1    3.98    3.78    0    0    0    0    0    0    0    0    0    0    0;
    994    1.99    1    1    1    1    2    1    1.99    1.89    0    0    0    0    0    0    0    0    0    0    0;
    995    20    38    38    0    1    60    1    100    20    0    0    0    0    0    0    0    0    0    0    0;
    996    20    12.3996    38    0    1    60    1    50    20    0    0    0    0    0    0    0    0    0    0    0;
    997    20    38    38    0    1    60    1    50    20    0    0    0    0    0    0    0    0    0    0    0;
    1004    4.28    3    3    3    1    5    1    4.28    4.07    0    0    0    0    0    0    0    0    0    0    0;
    1024    0.1    0    0    0    1    0    1    0.1    0.1    0    0    0    0    0    0    0    0    0    0    0;
    1027    24.9    13    13    13    1    30    1    24.9    23.66    0    0    0    0    0    0    0    0    0    0    0;
    1028    2.99    3    3    3    1    4    1    2.99    2.84    0    0    0    0    0    0    0    0    0    0    0;
    1029    24.9    14    14    14    1    30    1    24.9    23.66    0    0    0    0    0    0    0    0    0    0    0;
    1053    59.76    30.2709    53    0    1    72    1    59.76    56.77    0    0    0    0    0    0    0    0    0    0    0;
    1054    29.88    31    31    0    1    36    1    29.88    28.39    0    0    0    0    0    0    0    0    0    0    0;
    1105    7.97    10    10    10    1    10    1    7.97    7.57    0    0    0    0    0    0    0    0    0    0    0;
    1106    22.91    13    13    13    1    28    1    22.91    21.76    0    0    0    0    0    0    0    0    0    0    0;
    1107    10.56    3    3    3    1    13    1    10.56    10.03    0    0    0    0    0    0    0    0    0    0    0;
    1138    44.82    41    41    0    1    54    1    44.82    42.58    0    0    0    0    0    0    0    0    0    0    0;
    1140    230    66.7193    199    -87    1    252    1    230    70    0    0    0    0    0    0    0    0    0    0    0;
    1141    94.917    48.8205    190    -89    1    251    1    225    70    0    0    0    0    0    0    0    0    0    0    0;
    1175    37.84    20    20    20    1    45    1    37.84    35.95    0    0    0    0    0    0    0    0    0    0    0;
    1182    40    12.325    125    -50    1    133    1    120    40    0    0    0    0    0    0    0    0    0    0    0;
    1183    120    19.5012    125    -50    1    133    1    120    40    0    0    0    0    0    0    0    0    0    0    0;
    1184    120    61.2682    125    -50    1    133    1    120    40    0    0    0    0    0    0    0    0    0    0    0;
    1191    106.56    23.6932    129    -47    1    128    1    106.56    101.23    0    0    0    0    0    0    0    0    0    0    0;
    1192    250    69.2945    125    -50    1    123    1    250    80    0    0    0    0    0    0    0    0    0    0    0;
    1201    99.59    0    90    0    1    120    1    99.59    94.61    0    0    0    0    0    0    0    0    0    0    0;
    1202    99.59    71.827    90    0    1    120    1    99.59    94.61    0    0    0    0    0    0    0    0    0    0    0;
    1203    99.59    44.4643    90    0    1    120    1    99.59    94.61    0    0    0    0    0    0    0    0    0    0    0;
    1232    51.79    25.1424    41    0    1    62    1    51.79    49.2    0    0    0    0    0    0    0    0    0    0    0;
    1233    14.94    19.5029    41    0    1    18    1    14.94    14.19    0    0    0    0    0    0    0    0    0    0    0;
    1244    18.92    20    20    20    1    23    1    18.92    17.97    0    0    0    0    0    0    0    0    0    0    0;
    1247    15.93    12    12    12    1    19    1    15.93    15.13    0    0    0    0    0    0    0    0    0    0    0;
    1250    197.19    65.5075    151    0    1    237    1    197.19    187.33    0    0    0    0    0    0    0    0    0    0    0;
    1268    0.5    0    0    0    1    1    1    0.5    0.48    0    0    0    0    0    0    0    0    0    0    0;
    1316    1    0    0    0    1    1    1    1    0.95    0    0    0    0    0    0    0    0    0    0    0;
    1325    1.39    0    0    0    1    2    1    1.39    1.32    0    0    0    0    0    0    0    0    0    0    0;
    1349    1.49    0    0    0    1    2    1    1.49    1.42    0    0    0    0    0    0    0    0    0    0    0;
    1356    1    2    2    2    1    1    1    1    0.95    0    0    0    0    0    0    0    0    0    0    0;
    1359    0.8    1    1    1    1    1    1    0.8    0.76    0    0    0    0    0    0    0    0    0    0    0;
    1393    12.75    0    11    0    1    15    1    12.75    12.11    0    0    0    0    0    0    0    0    0    0    0;
    1403    4.28    1    1    1    1    5    1    4.28    4.07    0    0    0    0    0    0    0    0    0    0    0;
    1416    371    29.1325    180    10    1    246    1    371    80    0    0    0    0    0    0    0    0    0    0    0;
    1417    120    34.9276    120    5    1    123    1    120    80    0    0    0    0    0    0    0    0    0    0    0;
    1418    20    32.5842    90    5    1    123    1    20    5    0    0    0    0    0    0    0    0    0    0    0;
    1426    495    38.8902    68    27    1    106    1    495    20    0    0    0    0    0    0    0    0    0    0    0;
    1429    0.2    0    0    0    1    0    1    0.2    0.19    0    0    0    0    0    0    0    0    0    0    0;
    1469    0.6    0    0    0    1    1    1    0.6    0.57    0    0    0    0    0    0    0    0    0    0    0;
    1475    2.09    2    2    2    1    3    1    2.09    1.99    0    0    0    0    0    0    0    0    0    0    0;
    1504    31.17    2    2    2    1    37    1    31.17    29.61    0    0    0    0    0    0    0    0    0    0    0;
    1505    48.8    4    4    4    1    59    1    48.8    46.36    0    0    0    0    0    0    0    0    0    0    0;
    1514    2.29    1    1    1    1    3    1    2.29    2.18    0    0    0    0    0    0    0    0    0    0    0;
    1534    0.3    0    0    0    1    0    1    0.3    0.29    0    0    0    0    0    0    0    0    0    0    0;
    1536    160    45.7739    190    -89    1    251    1    225    160    0    0    0    0    0    0    0    0    0    0    0;
    1537    225    71.9112    203    -95    1    255    1    225    160    0    0    0    0    0    0    0    0    0    0    0;
    1538    215    40.2171    190    -89    1    255    1    215    70    0    0    0    0    0    0    0    0    0    0    0;
    1542    8.96    3    3    3    1    11    1    8.96    8.51    0    0    0    0    0    0    0    0    0    0    0;
    1543    1.2    0    0    0    1    1    1    1.2    1.14    0    0    0    0    0    0    0    0    0    0    0;
    1550    1.79    1    1    1    1    2    1    1.79    1.7    0    0    0    0    0    0    0    0    0    0    0;
    1566    54.77    22.117    47    20    1    66    1    54.77    52.03    0    0    0    0    0    0    0    0    0    0    0;
    1587    63.74    27    27    27    1    77    1    63.74    60.55    0    0    0    0    0    0    0    0    0    0    0;
    1600    17.43    3    3    3    1    21    1    17.43    16.56    0    0    0    0    0    0    0    0    0    0    0;
    1602    120    18.6395    90    0    1    144    1    120    40    0    0    0    0    0    0    0    0    0    0    0;
    1603    120    58.0213    90    0    1    144    1    120    40    0    0    0    0    0    0    0    0    0    0    0;
    1609    0.3    0    0    0    1    0    1    0.3    0.29    0    0    0    0    0    0    0    0    0    0    0;
    1617    2    0    0    0    1    2    1    2    1.9    0    0    0    0    0    0    0    0    0    0    0;
    1620    1.6    0    0    0    1    2    1    1.6    1.52    0    0    0    0    0    0    0    0    0    0    0;
...
];

%% branch data
%    fbus    tbus    r    x    b    rateA    rateB    rateC    ratio    angle    status    angmin    angmax
mpc.branch = [
    16    1    0.00155    0.01169    0.0182    160    160    160    0    0    1    -360    360;
    355    1    0.00157    0.06612    0    160    160    160    1.0099    0    1    -360    360;
    17    2    0.00155    0.01169    0.0182    160    160    160    0    0    1    -360    360;
    354    2    0.00157    0.06612    0    160    160    160    1.022    0    1    -360    360;
    10    3    0.01068    0.07895    0.1226    274    274    274    0    0    1    -360    360;
    219    3    0.00165    0.06736    0    160    160    160    1.027    0    1    -360    360;
    220    3    0.00165    0.06736    0    160    160    160    0.9955    0    1    -360    360;
    7    4    0.01674    0.09711    0.14423    377    377    377    0    0    1    -360    360;
    11    4    0.00293    0.01599    0.02478    335    335    335    0    0    1    -360    360;
    14    4    0.00442    0.03223    0.04985    464    464    464    0    0    1    -360    360;
    16    4    0.00888    0.06665    0.08896    377    377    377    0    0    1    -360    360;
    22    4    0.00783    0.043    0.04962    350    350    350    0    0    1    -360    360;
    245    4    0.00165    0.06901    0    160    160    160    1.0594    0    1    -360    360;
    246    4    0.00165    0.06901    0    160    160    160    1.0448    0    1    -360    360;
    5    6    0.00064    0.0305    0    400    400    400    1.0435    -0.6    1    -360    360;
    7    5    0.00525    0.03988    0.06195    381    381    381    0    0    1    -360    360;
    10    5    0.01459    0.11219    0.16553    381    381    381    0    0    1    -360    360;
    309    5    0.00165    0.0686    0    160    160    160    1.0646    0    1    -360    360;
    309    5    0.00165    0.0686    0    160    160    160    1.0523    0    1    -360    360;
    6    8    0.00112    0.01329    0.34125    1316    1316    1316    0    0    1    -360    360;
    6    9    0.00299    0.03675    0.9184    1427    1427    1427    0    0    1    -360    360;
    15    6    0.00298    0.03417    0.93504    1427    1427    1427    0    0    1    -360    360;
    31    6    0.0015    0.01506    0.4032    1385    1385    1385    0    0    1    -360    360;
    310    6    0.0015    0.06188    0    250    250    250    1.0613    0    1    -360    360;
    12    7    0.01211    0.08742    0.14017    381    381    381    0    0    1    -360    360;
    13    7    0.00205    0.01326    0.02243    335    335    335    0    0    1    -360    360;
    19    7    0.0057    0.0407    0.06021    323    323    323    0    0    1    -360    360;
    21    7    0.00093    0.00651    0.01113    160    160    160    0    0    1    -360    360;
    29    7    0.01269    0.07498    0.1302    362    362    362    0    0    1    -360    360;
    321    7    0.00041    0.03368    0    250    250    250    1.0323    0    1    -360    360;
    322    7    0.00165    0.06775    0    160    160    160    1.0569    0    1    -360    360;
    8    18    0.00336    0.03977    1.02163    1316    1316    1316    0    0    1    -360    360;
    332    9    0.00087    0.05244    -0.02144    330    330    330    1.0781    0    1    -360    360;
    171    10    0.01409    0.10413    0.15972    464    464    464    0    0    1    -360    360;
    346    10    0.00124    0.06839    0    160    160    160    1.0054    0    1    -360    360;
    347    10    0.00124    0.06839    0    160    160    160    1.024    0    1    -360    360;
    16    11    0.0057    0.03952    0.07553    464    464    464    0    0    1    -360    360;
    17    11    0.0057    0.03952    0.07553    464    464    464    0    0    1    -360    360;
    111    11    0.01068    0.06196    0.09496    394    394    394    0    0    1    -360    360;
    352    11    0.00165    0.06901    0    160    160    160    1.0412    0    1    -360    360;
    353    11    0.00165    0.06901    0    160    160    160    1.0559    0    1    -360    360;
    140    12    0.01465    0.10589    0.17085    464    464    464    0    0    1    -360    360;
    359    12    0.00155    0.06612    0    160    160    160    1.0395    0    1    -360    360;
    360    12    0.00157    0.06612    0    160    160    160    1.059    0    1    -360    360;
    29    13    0.01345    0.08114    0.14113    339    339    339    0    0    1    -360    360;
    365    13    0.00165    0.06901    0    160    160    160    1.0312    0    1    -360    360;
    366    13    0.00165    0.06901    0    160    160    160    0.9872    0    1    -360    360;
    17    14    0.00384    0.02853    0.04588    464    464    464    0    0    1    -360    360;
    367    14    0.00157    0.06798    0    160    160    160    1.0664    0    1    -360    360;
    368    14    0.00165    0.06901    0    160    160    160    1.0777    0    1    -360    360;
    18    15    0.00358    0.04262    1.0944    1662    1662    1662    0    0    1    -360    360;
    15    165    0.00207    0.02474    0.664    831    831    831    0    0    1    -360    360;
    374    15    0.0015    0.06188    0    250    250    250    1.1502    0    1    -360    360;
    16    18    0.00036    0.02519    0    500    500    500    1.0605    0    1    -360    360;
    16    73    0.00909    0.0624    0.11142    464    464    464    0    0    1    -360    360;
    17    18    0.00036    0.02519    0    500    500    500    1.0607    0    1    -360    360;
    17    74    0.00868    0.06405    0.09699    464    464    464    0    0    1    -360    360;
    20    18    0.00063    0.00749    0.39226    1427    1427    1427    0    0    1    -360    360;
    75    18    0.00219    0.02369    0.59584    1434    1434    1434    0    0    1    -360    360;
    18    76    0.00137    0.01625    0.41184    1662    1662    1662    0    0    1    -360    360;
    18    101    0.00231    0.02769    0.70144    1662    1662    1662    0    0    1    -360    360;
    124    19    0.01696    0.12366    0.19699    464    464    464    0    0    1    -360    360;
    425    19    0.00165    0.06818    0    160    160    160    1.0241    0    1    -360    360;
    67    20    0.00331    0.03425    0.85888    831    831    831    0    0    1    -360    360;
    447    20    0.00137    0.06119    -0.01504    250    250    250    1.0796    0    1    -360    360;
    448    20    0.00137    0.06119    -0.01504    250    250    250    1.0923    0    1    -360    360;
    502    21    0.00165    0.07107    0    160    160    160    0.9922    0    1    -360    360;
    112    22    0.00465    0.02618    0.02962    362    362    362    0    0    1    -360    360;
    526    22    0.00165    0.06901    0    160    160    160    1.0685    0    1    -360    360;
    527    22    0.00165    0.06901    0    160    160    160    1.0424    0    1    -360    360;
    37    23    0.01163    0.07031    0.1058    394    394    394    0    0    1    -360    360;
    46    23    0.00837    0.04868    0.07348    457    457    457    0    0    1    -360    360;
    53    23    0.01122    0.06558    0.09835    274    274    274    0    0    1    -360    360;
    540    23    0.0014    0.0668    0    160    160    160    1.0182    0    1    -360    360;
    54    24    0.00769    0.05727    0.08789    160    160    160    0    0    1    -360    360;
    545    24    0.00151    0.06715    0    160    160    160    1.0161    0    1    -360    360;
    41    25    0.00556    0.04145    0.0636    274    274    274    0    0    1    -360    360;
    53    25    0.00452    0.03368    0.05169    464    464    464    0    0    1    -360    360;
    54    25    0.00019    0.0014    0.00213    464    464    464    0    0    1    -360    360;
    564    25    0.00157    0.07808    0    160    160    160    1.0276    0    1    -360    360;
    38    26    0.00698    0.05196    0.07967    160    160    160    0    0    1    -360    360;
    568    26    0.00149    0.06616    0    160    160    160    1.013    0    1    -360    360;
    28    27    0    0.0001    0    876    876    876    0    0    1    -360    360;
    33    27    0.0024    0.01494    0.02253    160    160    160    0    0    1    -360    360;
    48    27    0.01213    0.06215    0.09371    362    362    362    0    0    1    -360    360;
    27    74    0.01116    0.07231    0.10367    304    304    304    0    0    1    -360    360;
    47    28    0.00248    0.01798    0.02759    464    464    464    0    0    1    -360    360;
    28    88    0.01488    0.08161    0.1148    362    362    362    0    0    1    -360    360;
    30    29    0    0.0001    0    876    876    876    0    0    1    -360    360;
    29    32    0.00034    0.02097    0    500    500    500    1.0619    0    1    -360    360;
    45    29    0.00545    0.04021    0.06699    464    464    464    0    0    1    -360    360;
    48    29    0.00574    0.04283    0.06573    464    464    464    0    0    1    -360    360;
    613    29    0.00157    0.06775    0    160    160    160    1.0016    0    1    -360    360;
    46    30    0.00545    0.04021    0.06699    464    464    464    0    0    1    -360    360;
    49    30    0.00707    0.04541    0.06931    362    362    362    0    0    1    -360    360;
    32    31    0    0.0001    0    1593    1593    1593    0    0    1    -360    360;
    39    31    0.00176    0.02144    0.57344    1385    1385    1385    0    0    1    -360    360;
    36    32    0.00167    0.0189    0.54176    498    498    498    0    0    1    -360    360;
    615    33    0.00163    0.06946    0    160    160    160    1.0291    0    1    -360    360;
    35    34    0    0.0001    0    1593    1593    1593    0    0    1    -360    360;
    34    51    0.00113    0.01406    0.37488    1385    1385    1385    0    0    1    -360    360;
    183    34    0.00188    0.02287    0.6432    1385    1385    1385    0    0    1    -360    360;
    183    35    0.00188    0.02287    0.6432    1385    1385    1385    0    0    1    -360    360;
    617    35    0.00135    0.06052    0    250    250    250    1.0654    0    1    -360    360;
    644    36    0.00135    0.06052    0    250    250    250    1.1003    0    1    -360    360;
    645    36    0.00153    0.06156    0    250    250    250    1.0971    0    1    -360    360;
    38    37    0    0.0001    0    876    876    876    0    0    1    -360    360;
    663    37    0.00157    0.06616    0    160    160    160    1.0009    0    1    -360    360;
    55    38    0.00316    0.02076    0.03146    394    394    394    0    0    1    -360    360;
    40    39    0    0.0001    0    1593    1593    1593    0    0    1    -360    360;
    682    39    0.00139    0.05984    0    250    250    250    1.0603    0    1    -360    360;
    44    40    0.00109    0.01277    0.34176    1385    1385    1385    0    0    1    -360    360;
    679    40    0.0014    0.06235    0    250    250    250    1.0996    0    1    -360    360;
    42    41    0    0.0001    0    876    876    876    0    0    1    -360    360;
    41    43    0.00081    0.03    0    400    400    400    1.0377    0    1    -360    360;
    80    41    0.00372    0.0438    0.10096    609    609    609    0    0    1    -360    360;
    47    42    0.00882    0.06564    0.10066    274    274    274    0    0    1    -360    360;
    54    42    0.00355    0.02643    0.04056    392    392    392    0    0    1    -360    360;
    689    42    0.00145    0.06839    0    160    160    160    1.0037    0    1    -360    360;
    44    43    0    0.0001    0    1593    1593    1593    0    0    1    -360    360;
    99    43    0.00169    0.01994    0.50624    831    831    831    0    0    1    -360    360;
    50    44    0.00094    0.01097    0.29376    1662    1662    1662    0    0    1    -360    360;
    46    45    0    0.0001    0    876    876    876    0    0    1    -360    360;
    49    45    0.01048    0.06097    0.09205    394    394    394    0    0    1    -360    360;
    706    47    0.00157    0.06775    0    160    160    160    1.0249    0    1    -360    360;
    707    47    0.00165    0.06775    0    160    160    160    1.0201    0    1    -360    360;
    49    48    0    0.0001    0    876    876    876    0    0    1    -360    360;
    717    48    0.00163    0.06783    0    160    160    160    1.023    0    1    -360    360;
    716    49    0.00143    0.06831    0    160    160    160    1.0238    0    1    -360    360;
    51    50    0    0.0001    0    1593    1593    1593    0    0    1    -360    360;
    98    50    0.0015    0.01788    0.4512    831    831    831    0    0    1    -360    360;
    100    50    0.00469    0.05544    1.4048    831    831    831    0    0    1    -360    360;
    726    50    0.00139    0.0608    0    250    250    250    1.0815    0    1    -360    360;
    727    51    0.0014    0.06235    0    250    250    250    1.0819    0    1    -360    360;
    53    52    0.00151    0.00878    0.01316    160    160    160    0    0    1    -360    360;
    754    52    0.00163    0.06754    0    160    160    160    1.0317    0    1    -360    360;
    181    55    0.01434    0.08353    0.12603    394    394    394    0    0    1    -360    360;
    778    55    0.00161    0.06762    0    160    160    160    0.9979    0    1    -360    360;
    74    56    0.00207    0.01281    0.02052    394    394    394    0    0    1    -360    360;
    796    56    0.00207    0.06777    -0.003    160    160    160    1.0389    0    1    -360    360;
    81    57    0.00083    0.00496    0.00726    137    137    137    0    0    1    -360    360;
    80    58    0.00083    0.00496    0.00726    137    137    137    0    0    1    -360    360;
    63    59    0.00207    0.01405    0.02265    362    362    362    0    0    1    -360    360;
    82    59    0.01116    0.07045    0.11606    362    362    362    0    0    1    -360    360;
    821    59    0.00165    0.06798    -0.00319    160    160    160    1.0178    0    1    -360    360;
    60    85    0.01095    0.0593    0.08441    362    362    362    0    0    1    -360    360;
    104    60    0.00599    0.04091    0.07212    464    464    464    0    0    1    -360    360;
    834    60    0.00145    0.06921    -0.00532    160    160    160    0.9936    0    1    -360    360;
    836    60    0.00372    0.12583    -0.00242    100    100    100    1.0154    0    1    -360    360;
    62    61    0    0.0001    0    876    876    876    0    0    1    -360    360;
    64    61    0.00517    0.03843    0.05876    464    464    464    0    0    1    -360    360;
    109    61    0.00083    0.0062    0.00958    464    464    464    0    0    1    -360    360;
    184    61    0.01219    0.07066    0.11742    274    274    274    0    0    1    -360    360;
    82    62    0.00165    0.01095    0.01955    464    464    464    0    0    1    -360    360;
    110    62    0.00083    0.0062    0.00949    464    464    464    0    0    1    -360    360;
    71    63    0.00475    0.03079    0.04879    362    362    362    0    0    1    -360    360;
    91    63    0.00455    0.02769    0.04608    394    394    394    0    0    1    -360    360;
    94    63    0.00186    0.0126    0.02236    464    464    464    0    0    1    -360    360;
    96    63    0.00826    0.04236    0.06118    362    362    362    0    0    1    -360    360;
...